<?xml version="1.0" encoding="UTF-8"?>

<!-- generated on 11/21/21 15:00:00 by Eclipse SUMO netedit Version 1.6.0
<configuration xmlns:xsi="http://www.w3.org/2001/XMLSchema-instance" xsi:noNamespaceSchemaLocation="http://sumo.dlr.de/xsd/netconvertConfiguration.xsd">

    <input>
        <sumo-net-file value="D:\codecode\AAAmine\Didi\Didi_proj\env_build\sumo_files\user_defined\green_bicycle_left_3\a.net.xml"/>
    </input>

    <output>
        <output-file value="D:\codecode\AAAmine\Didi\Didi_proj\env_build\sumo_files\user_defined\green_bicycle_left_3\a.net.xml"/>
    </output>

    <processing>
        <geometry.min-radius.fix.railways value="false"/>
        <geometry.max-grade.fix value="false"/>
        <offset.disable-normalization value="true"/>
        <lefthand value="false"/>
    </processing>

    <junctions>
        <no-internal-links value="false"/>
        <no-turnarounds value="true"/>
        <junctions.corner-detail value="5"/>
        <junctions.limit-turn-speed value="5.5"/>
        <rectangular-lane-cut value="false"/>
    </junctions>

    <pedestrian>
        <walkingareas value="false"/>
    </pedestrian>

    <report>
        <aggregate-warnings value="5"/>
    </report>

</configuration>
-->

<net version="1.6" junctionCornerDetail="5" limitTurnSpeed="5.50" xmlns:xsi="http://www.w3.org/2001/XMLSchema-instance" xsi:noNamespaceSchemaLocation="http://sumo.dlr.de/xsd/net_file.xsd">

    <location netOffset="0.00,0.00" convBoundary="-200.00,-200.00,200.00,200.00" origBoundary="-10000000000.00,-10000000000.00,10000000000.00,10000000000.00" projParameter="!"/>

    <edge id=":0_0" function="internal">
        <lane id=":0_0_0" index="0" allow="bicycle" speed="10.68" length="21.16" width="1.00" shape="-6.74,33.86 -8.23,27.57 -11.61,23.07 -16.86,20.37 -20.00,19.97"/>
    </edge>
    <edge id=":0_1" function="internal">
        <lane id=":0_1_0" index="0" allow="bicycle" speed="13.89" length="62.93" width="1.00" shape="-6.74,33.86 -8.18,-29.05"/>
    </edge>
    <edge id=":0_2" function="internal">
        <lane id=":0_2_0" index="0" disallow="pedestrian bicycle" speed="11.57" length="6.44" width="3.78" shape="-4.41,33.70 -5.89,27.43"/>
    </edge>
    <edge id=":0_3" function="internal">
        <lane id=":0_3_0" index="0" disallow="pedestrian bicycle" speed="13.89" length="62.93" width="3.06" shape="-0.48,33.42 -2.58,-29.47"/>
    </edge>
    <edge id=":0_4" function="internal">
        <lane id=":0_4_0" index="0" disallow="pedestrian bicycle" speed="13.89" length="49.96" width="3.20" shape="-0.48,33.42 -0.11,15.80 4.09,3.22 12.13,-4.33 20.00,-5.99"/>
    </edge>
    <edge id=":0_22" function="internal">
        <lane id=":0_22_0" index="0" allow="bicycle" speed="10.68" length="4.03" width="1.00" shape="-20.00,19.97 -24.00,19.46"/>
    </edge>
    <edge id=":0_23" function="internal">
        <lane id=":0_23_0" index="0" disallow="pedestrian bicycle" speed="11.57" length="22.36" width="3.78" shape="-5.89,27.43 -6.12,26.43 -9.95,21.24 -15.91,18.12 -24.00,17.07"/>
    </edge>
    <edge id=":0_24" function="internal">
        <lane id=":0_24_0" index="0" disallow="pedestrian bicycle" speed="13.89" length="4.09" width="3.20" shape="20.00,-5.99 24.00,-6.84"/>
    </edge>
    <edge id=":0_5" function="internal">
        <lane id=":0_5_0" index="0" allow="bicycle" speed="9.54" length="18.53" width="1.00" shape="24.00,19.36 17.41,20.19 12.84,22.70 10.31,26.86 10.16,28.66"/>
    </edge>
    <edge id=":0_6" function="internal">
        <lane id=":0_6_0" index="0" allow="bicycle" speed="13.89" length="48.00" width="1.00" shape="24.00,19.36 -24.00,19.46"/>
    </edge>
    <edge id=":0_7" function="internal">
        <lane id=":0_7_0" index="0" disallow="pedestrian bicycle" speed="10.51" length="8.50" width="3.69" shape="24.00,17.02 16.31,18.01 15.65,18.38"/>
    </edge>
    <edge id=":0_8" function="internal">
        <lane id=":0_8_0" index="0" disallow="pedestrian bicycle" speed="13.89" length="48.00" width="3.67" shape="24.00,13.34 -24.00,13.34"/>
        <lane id=":0_8_1" index="1" disallow="pedestrian bicycle" speed="13.89" length="48.00" width="3.30" shape="24.00,9.75 -24.00,9.86"/>
    </edge>
    <edge id=":0_10" function="internal">
        <lane id=":0_10_0" index="0" disallow="pedestrian bicycle" speed="13.89" length="45.55" width="3.06" shape="24.00,6.29 13.33,4.06 5.34,-2.65 0.04,-13.82 -1.92,-25.51"/>
    </edge>
    <edge id=":0_25" function="internal">
        <lane id=":0_25_0" index="0" allow="bicycle" speed="9.54" length="4.05" width="1.00" shape="10.16,28.66 9.81,32.70"/>
    </edge>
    <edge id=":0_26" function="internal">
        <lane id=":0_26_0" index="0" disallow="pedestrian bicycle" speed="10.51" length="18.06" width="3.69" shape="15.65,18.38 10.99,20.98 8.05,25.93 7.47,32.86"/>
    </edge>
    <edge id=":0_27" function="internal">
        <lane id=":0_27_0" index="0" disallow="pedestrian bicycle" speed="13.89" length="4.02" width="3.06" shape="-1.92,-25.51 -2.58,-29.47"/>
    </edge>
    <edge id=":0_11" function="internal">
        <lane id=":0_11_0" index="0" allow="bicycle" speed="10.43" length="20.15" width="1.00" shape="7.57,-30.23 8.97,-24.13 12.17,-19.78 17.18,-17.16 20.00,-16.80"/>
    </edge>
    <edge id=":0_12" function="internal">
        <lane id=":0_12_0" index="0" allow="bicycle" speed="13.89" length="62.97" width="1.00" shape="7.57,-30.23 9.81,32.70"/>
    </edge>
    <edge id=":0_13" function="internal">
        <lane id=":0_13_0" index="0" disallow="pedestrian bicycle" speed="11.29" length="6.46" width="3.60" shape="5.37,-30.06 6.80,-23.76"/>
    </edge>
    <edge id=":0_14" function="internal">
        <lane id=":0_14_0" index="0" disallow="pedestrian bicycle" speed="13.89" length="62.97" width="3.98" shape="2.04,-29.81 3.64,33.13"/>
    </edge>
    <edge id=":0_15" function="internal">
        <lane id=":0_15_0" index="0" disallow="pedestrian bicycle" speed="13.89" length="22.61" width="3.30" shape="2.04,-29.81 1.47,-12.44 -0.32,-7.53"/>
    </edge>
    <edge id=":0_28" function="internal">
        <lane id=":0_28_0" index="0" allow="bicycle" speed="10.43" length="4.03" width="1.00" shape="20.00,-16.80 24.00,-16.29"/>
    </edge>
    <edge id=":0_29" function="internal">
        <lane id=":0_29_0" index="0" disallow="pedestrian bicycle" speed="11.29" length="21.17" width="3.60" shape="6.80,-23.76 6.96,-23.03 10.60,-18.01 16.28,-15.00 24.00,-13.99"/>
    </edge>
    <edge id=":0_30" function="internal">
        <lane id=":0_30_0" index="0" disallow="pedestrian bicycle" speed="13.89" length="31.96" width="3.30" shape="-0.32,-7.53 -3.06,-0.03 -11.55,7.40 -24.00,9.86"/>
    </edge>
    <edge id=":0_16" function="internal">
        <lane id=":0_16_0" index="0" allow="bicycle" speed="9.73" length="19.35" width="1.00" shape="-24.00,-16.31 -16.74,-17.10 -11.68,-19.48 -8.82,-23.47 -8.65,-25.01"/>
    </edge>
    <edge id=":0_17" function="internal">
        <lane id=":0_17_0" index="0" allow="bicycle" speed="13.89" length="48.00" width="1.00" shape="-24.00,-16.31 24.00,-16.29"/>
    </edge>
    <edge id=":0_18" function="internal">
        <lane id=":0_18_0" index="0" disallow="pedestrian bicycle" speed="10.66" length="9.17" width="3.58" shape="-24.00,-14.02 -15.67,-14.96 -14.96,-15.31"/>
    </edge>
    <edge id=":0_19" function="internal">
        <lane id=":0_19_0" index="0" disallow="pedestrian bicycle" speed="13.89" length="48.00" width="3.75" shape="-24.00,-10.35 24.00,-10.31"/>
        <lane id=":0_19_1" index="1" disallow="pedestrian bicycle" speed="13.89" length="48.00" width="3.20" shape="-24.00,-6.69 24.00,-6.84"/>
    </edge>
    <edge id=":0_21" function="internal">
        <lane id=":0_21_0" index="0" disallow="pedestrian bicycle" speed="13.89" length="46.83" width="3.98" shape="-24.00,-3.31 -12.96,-1.01 -4.67,5.82 0.87,17.21 2.95,29.17"/>
    </edge>
    <edge id=":0_31" function="internal">
        <lane id=":0_31_0" index="0" allow="bicycle" speed="9.73" length="4.07" width="1.00" shape="-8.65,-25.01 -8.18,-29.05"/>
    </edge>
    <edge id=":0_32" function="internal">
        <lane id=":0_32_0" index="0" disallow="pedestrian bicycle" speed="10.66" length="18.13" width="3.58" shape="-14.96,-15.31 -9.88,-17.81 -6.62,-22.56 -5.90,-29.22"/>
    </edge>
    <edge id=":0_33" function="internal">
        <lane id=":0_33_0" index="0" disallow="pedestrian bicycle" speed="13.89" length="4.02" width="3.98" shape="2.95,29.17 3.64,33.13"/>
    </edge>
    <edge id=":0_c0" function="crossing" crossingEdges="3i 3o">
        <lane id=":0_c0_0" index="0" allow="pedestrian" speed="1.00" length="17.59" width="4.00" shape="10.15,30.67 -7.39,31.90"/>
    </edge>
    <edge id=":0_c1" function="crossing" crossingEdges="2i 2o">
        <lane id=":0_c1_0" index="0" allow="pedestrian" speed="1.00" length="36.65" width="4.00" shape="22.00,-16.79 22.00,19.86"/>
    </edge>
    <edge id=":0_c2" function="crossing" crossingEdges="1i 1o">
        <lane id=":0_c2_0" index="0" allow="pedestrian" speed="1.00" length="16.79" width="4.00" shape="-8.53,-27.02 8.21,-28.27"/>
    </edge>
    <edge id=":0_c3" function="crossing" crossingEdges="4i 4o">
        <lane id=":0_c3_0" index="0" allow="pedestrian" speed="1.00" length="36.77" width="4.00" shape="-22.00,19.96 -22.00,-16.81"/>
    </edge>
    <edge id=":0_w0" function="walkingarea">
        <lane id=":0_w0_0" index="0" allow="pedestrian" speed="1.00" length="13.88" width="4.00" shape="-24.00,19.96 -24.00,21.96 -9.23,34.04 -7.24,33.89 -8.00,29.65 -9.58,26.17 -11.96,23.46 -15.16,21.52 -19.18,20.35"/>
    </edge>
    <edge id=":0_w1" function="walkingarea">
        <lane id=":0_w1_0" index="0" allow="pedestrian" speed="1.00" length="11.90" width="4.00" shape="10.31,32.67 12.30,32.52 24.00,21.86 24.00,19.86 19.54,20.22 15.96,21.28 13.24,23.06 11.39,25.55 10.41,28.75"/>
    </edge>
    <edge id=":0_w3" function="walkingarea">
        <lane id=":0_w3_0" index="0" allow="pedestrian" speed="1.00" length="13.27" width="4.00" shape="24.00,-16.79 24.00,-18.79 10.06,-30.41 8.06,-30.27 8.77,-26.15 10.26,-22.78 12.53,-20.16 15.57,-18.29 19.40,-17.16"/>
    </edge>
    <edge id=":0_w5" function="walkingarea">
        <lane id=":0_w5_0" index="0" allow="pedestrian" speed="1.00" length="12.47" width="4.00" shape="-8.68,-29.01 -10.67,-28.87 -24.00,-18.81 -24.00,-16.81 -19.07,-17.14 -15.10,-18.16 -12.07,-19.85 -9.99,-22.23 -8.86,-25.28"/>
    </edge>
    <edge id=":1_w1" function="walkingarea">
        <lane id=":1_w1_0" index="0" allow="pedestrian" speed="1.00" length="18.83" width="2.00" shape="-4.04,-199.93 -2.05,-200.07 -22.87,-199.31 -20.87,-199.45"/>
    </edge>
    <edge id=":2_w1" function="walkingarea">
        <lane id=":2_w1_0" index="0" allow="pedestrian" speed="1.00" length="38.60" width="2.00" shape="200.00,19.85 200.00,21.85 200.00,-18.75 200.00,-16.75"/>
    </edge>
    <edge id=":3_w0" function="walkingarea">
        <lane id=":3_w0_0" index="0" allow="pedestrian" speed="1.00" length="19.56" width="2.00" shape="5.64,200.68 3.64,200.84 25.14,199.18 23.14,199.33"/>
    </edge>
    <edge id=":4_w0" function="walkingarea">
        <lane id=":4_w0_0" index="0" allow="pedestrian" speed="1.00" length="38.73" width="2.00" shape="-199.97,-17.11 -199.97,-19.11 -200.05,21.62 -200.04,19.62"/>
    </edge>
    <edge id=":a1_0" function="internal">
        <lane id=":a1_0_0" index="0" speed="3.90" length="2.58" shape="148.40,-180.00 148.50,-180.70 148.80,-181.20 149.30,-181.50 150.00,-181.60"/>
    </edge>
    <edge id=":a2_0" function="internal">
        <lane id=":a2_0_0" index="0" speed="3.90" length="2.58" shape="200.00,-181.60 200.70,-181.50 201.20,-181.20 201.50,-180.70 201.60,-180.00"/>
    </edge>
    <edge id=":a3_0" function="internal">
        <lane id=":a3_0_0" index="0" speed="3.90" length="2.58" shape="201.60,-150.00 201.50,-149.30 201.20,-148.80 200.70,-148.50 200.00,-148.40"/>
    </edge>
    <edge id=":a4_0" function="internal">
        <lane id=":a4_0_0" index="0" speed="3.90" length="2.58" shape="150.00,-148.40 149.30,-148.50 148.80,-148.80 148.50,-149.30 148.40,-150.00"/>
    </edge>

    <edge id="1i" from="0" to="1" priority="-1" shape="-0.07,-1.10 -0.91,-27.51 -13.25,-200.00">
        <lane id="1i_0" index="0" allow="pedestrian" speed="13.89" length="170.87" width="2.00" shape="-9.67,-28.94 -21.87,-199.38"/>
        <lane id="1i_1" index="1" allow="bicycle" speed="13.89" length="170.87" width="1.00" shape="-8.18,-29.05 -20.37,-199.49"/>
        <lane id="1i_2" index="2" disallow="pedestrian bicycle" speed="13.89" length="170.87" width="3.58" shape="-5.90,-29.22 -18.09,-199.65"/>
        <lane id="1i_3" index="3" disallow="pedestrian bicycle" speed="13.89" length="170.87" width="3.06" shape="-2.58,-29.47 -14.78,-199.89"/>
    </edge>
    <edge id="1o" from="1" to="0" priority="-1" shape="-13.25,-200.00 -1.00,-28.32 -0.07,-1.10">
        <lane id="1o_0" index="0" allow="pedestrian" speed="13.89" length="170.43" width="2.00" shape="-3.04,-200.00 9.06,-30.34"/>
        <lane id="1o_1" index="1" allow="bicycle" speed="13.89" length="170.43" width="1.00" shape="-4.55,-200.00 7.57,-30.23"/>
        <lane id="1o_2" index="2" disallow="pedestrian bicycle" speed="13.89" length="170.43" width="3.41" shape="-6.76,-200.00 5.37,-30.06"/>
        <lane id="1o_3" index="3" disallow="pedestrian bicycle" speed="13.89" length="170.43" width="3.27" shape="-10.11,-200.00 2.04,-29.81"/>
        <lane id="1o_4" index="4" allow="pedestrian" speed="13.89" length="170.43" width="1.50" shape="-12.50,-200.05 -0.34,-29.64"/>
    </edge>
    <edge id="2i" from="0" to="2" priority="-1" shape="-0.07,-1.10 23.08,-5.24 200.00,-5.20">
        <lane id="2i_0" index="0" allow="pedestrian" speed="13.89" length="176.00" width="2.00" shape="24.00,-17.79 200.00,-17.75"/>
        <lane id="2i_1" index="1" allow="bicycle" speed="13.89" length="176.00" width="1.00" shape="24.00,-16.29 200.00,-16.25"/>
        <lane id="2i_2" index="2" disallow="pedestrian bicycle" speed="13.89" length="176.00" width="3.60" shape="24.00,-13.99 200.00,-13.95"/>
        <lane id="2i_3" index="3" disallow="pedestrian bicycle" speed="13.89" length="176.00" width="3.75" shape="24.00,-10.31 200.00,-10.27"/>
        <lane id="2i_4" index="4" disallow="pedestrian bicycle" speed="13.89" length="176.00" width="3.20" shape="24.00,-6.84 200.00,-6.80"/>
    </edge>
    <edge id="2o" from="2" to="0" priority="-1" shape="200.00,-5.20 20.39,-5.19 10.24,-5.36 -0.07,-1.10">
        <lane id="2o_0" index="0" allow="pedestrian" speed="13.89" length="176.00" width="2.00" shape="200.00,20.85 24.00,20.86"/>
        <lane id="2o_1" index="1" allow="bicycle" speed="13.89" length="176.00" width="1.00" shape="200.00,19.35 24.00,19.36"/>
        <lane id="2o_2" index="2" disallow="pedestrian bicycle" speed="13.89" length="176.00" width="3.68" shape="200.00,17.01 24.00,17.02"/>
        <lane id="2o_3" index="3" disallow="pedestrian bicycle" speed="13.89" length="176.00" width="3.67" shape="200.00,13.33 24.00,13.34"/>
        <lane id="2o_4" index="4" disallow="pedestrian bicycle" speed="13.89" length="176.00" width="3.52" shape="200.00,9.74 24.00,9.75"/>
        <lane id="2o_5" index="5" disallow="pedestrian bicycle" speed="13.89" length="176.00" width="3.39" shape="200.00,6.28 24.00,6.29"/>
        <lane id="2o_6" index="6" allow="pedestrian" speed="13.89" length="176.00" width="9.79" shape="200.00,-0.31 24.00,-0.30"/>
    </edge>
    <edge id="3i" from="0" to="3" priority="-1" shape="-0.07,-1.10 1.59,32.37 14.50,200.00">
        <lane id="3i_0" index="0" allow="pedestrian" speed="13.89" length="167.18" width="2.00" shape="11.31,32.60 24.14,199.26"/>
        <lane id="3i_1" index="1" allow="bicycle" speed="13.89" length="167.18" width="1.00" shape="9.81,32.70 22.65,199.37"/>
        <lane id="3i_2" index="2" disallow="pedestrian bicycle" speed="13.89" length="167.18" width="3.69" shape="7.47,32.86 20.31,199.55"/>
        <lane id="3i_3" index="3" disallow="pedestrian bicycle" speed="13.89" length="167.18" width="3.98" shape="3.64,33.13 16.48,199.85"/>
    </edge>
    <edge id="3o" from="3" to="0" priority="-1" shape="14.50,200.00 1.54,32.09 -0.07,-1.10">
        <lane id="3o_0" index="0" allow="pedestrian" speed="13.89" length="167.27" width="2.00" shape="4.64,200.76 -8.23,33.96"/>
        <lane id="3o_1" index="1" allow="bicycle" speed="13.89" length="167.27" width="1.00" shape="6.13,200.65 -6.74,33.86"/>
        <lane id="3o_2" index="2" disallow="pedestrian bicycle" speed="13.89" length="167.27" width="3.66" shape="8.46,200.47 -4.41,33.70"/>
        <lane id="3o_3" index="3" disallow="pedestrian bicycle" speed="13.89" length="167.27" width="4.23" shape="12.39,200.16 -0.48,33.42"/>
    </edge>
    <edge id="4i" from="0" to="4" priority="-1" shape="-0.07,-1.10 -22.99,-1.66 -200.00,-2.00">
        <lane id="4i_0" index="0" allow="pedestrian" speed="13.89" length="176.03" width="2.00" shape="-24.00,20.96 -200.04,20.62"/>
        <lane id="4i_1" index="1" allow="bicycle" speed="13.89" length="176.03" width="1.00" shape="-24.00,19.46 -200.04,19.12"/>
        <lane id="4i_2" index="2" disallow="pedestrian bicycle" speed="13.89" length="176.03" width="3.78" shape="-24.00,17.07 -200.04,16.73"/>
        <lane id="4i_3" index="3" disallow="pedestrian bicycle" speed="13.89" length="176.03" width="3.67" shape="-24.00,13.34 -200.03,13.00"/>
        <lane id="4i_4" index="4" disallow="pedestrian bicycle" speed="13.89" length="176.03" width="3.30" shape="-24.00,9.86 -200.02,9.52"/>
        <lane id="4i_5" index="5" allow="pedestrian" speed="13.89" length="176.03" width="9.87" shape="-24.00,3.27 -200.01,2.93"/>
    </edge>
    <edge id="4o" from="4" to="0" priority="-1" shape="-200.00,-2.00 -22.59,-1.70 -0.07,-1.10">
        <lane id="4o_0" index="0" allow="pedestrian" speed="13.89" length="175.98" width="2.00" shape="-199.97,-18.11 -24.00,-17.81"/>
        <lane id="4o_1" index="1" allow="bicycle" speed="13.89" length="175.98" width="1.00" shape="-199.98,-16.61 -24.00,-16.31"/>
        <lane id="4o_2" index="2" disallow="pedestrian bicycle" speed="13.89" length="175.98" width="3.58" shape="-199.98,-14.32 -24.00,-14.02"/>
        <lane id="4o_3" index="3" disallow="pedestrian bicycle" speed="13.89" length="175.98" width="3.76" shape="-199.99,-10.65 -24.00,-10.35"/>
        <lane id="4o_4" index="4" disallow="pedestrian bicycle" speed="13.89" length="175.98" width="3.56" shape="-199.99,-6.99 -24.00,-6.69"/>
        <lane id="4o_5" index="5" disallow="pedestrian bicycle" speed="13.89" length="175.98" width="3.21" shape="-200.00,-3.60 -24.00,-3.31"/>
    </edge>
    <edge id="a1toa2" from="a1" to="a2" priority="-1">
        <lane id="a1toa2_0" index="0" speed="13.89" length="50.00" shape="150.00,-181.60 200.00,-181.60"/>
    </edge>
    <edge id="a2toa3" from="a2" to="a3" priority="-1">
        <lane id="a2toa3_0" index="0" speed="13.89" length="30.00" shape="201.60,-180.00 201.60,-150.00"/>
    </edge>
    <edge id="a3toa4" from="a3" to="a4" priority="-1">
        <lane id="a3toa4_0" index="0" speed="13.89" length="50.00" shape="200.00,-148.40 150.00,-148.40"/>
    </edge>
    <edge id="a4toa1" from="a4" to="a1" priority="-1">
        <lane id="a4toa1_0" index="0" speed="13.89" length="30.00" shape="148.40,-150.00 148.40,-180.00"/>
    </edge>

    <tlLogic id="0" type="static" programID="0" offset="0">
        <phase duration="60" state="gGgGGGgrgrrrgGgGGggrgrrrrGrGrrrrr"/>
        <phase duration="15" state="grgGGGgrgrrrgrgGGGgrgrrrrrrrrrrrr"/>
        <phase duration="5"  state="grgyyygrgrrrgrgyyygrgrrrrrrrrrrrr"/>
        <phase duration="20" state="grgrrrgrgrrrgrgrrrgrgrrrrrrrrrrrr"/>
        <phase duration="25" state="grgrrrgGgGGrgrgrrrgGgGGrGrGrrrrrr"/>
        <phase duration="5"  state="grgrrrgrgyyrgrgrrrgrgyyrrrrrrrrrr"/>
        <phase duration="10" state="grgrrrgrgrrrgrgrrrgrgrrrrrrrrrrrr"/>
        <phase duration="15" state="grgrrrgrgrrGgrgrrrgrgrrGrrrrrrrrr"/>
        <phase duration="5"  state="grgrrrgrgrrygrgrrrgrgrryrrrrrrrrr"/>
        <phase duration="10" state="grgrrrgrgrrrgrgrrrgrgrrrrrrrrrrrr"/>
    </tlLogic>

    <junction id="0" type="traffic_light" x="-0.07" y="-1.10" incLanes="3o_0 3o_1 3o_2 3o_3 2o_0 2o_1 2o_2 2o_3 2o_4 2o_5 2o_6 1o_0 1o_1 1o_2 1o_3 1o_4 4o_0 4o_1 4o_2 4o_3 4o_4 4o_5 :0_w1_0 :0_w3_0 :0_w5_0 :0_w0_0" intLanes=":0_22_0 :0_1_0 :0_23_0 :0_3_0 :0_24_0 :0_25_0 :0_6_0 :0_26_0 :0_8_0 :0_8_1 :0_27_0 :0_28_0 :0_12_0 :0_29_0 :0_14_0 :0_30_0 :0_31_0 :0_17_0 :0_32_0 :0_19_0 :0_19_1 :0_33_0 :0_c0_0 :0_c1_0 :0_c2_0 :0_c3_0" shape="-10.65,-28.87 -24.00,-18.79 -24.00,22.02 -9.19,34.03 12.26,32.53 24.00,21.82 24.00,-18.75 10.03,-30.41" customShape="1">
        <request index="0"  response="10010000000000000001000000" foes="10010000000000000001000000" cont="1"/>
        <request index="1"  response="01011111110000001101000000" foes="01011111111000001101000100" cont="0"/>
        <request index="2"  response="10010000000000001101000010" foes="10010000000000001101000010" cont="1"/>
        <request index="3"  response="01011111100000011101000000" foes="01011111101000011101000000" cont="0"/>
        <request index="4"  response="00111110000101011101000000" foes="00111110000101011101000000" cont="1"/>
        <request index="5"  response="00110000000000000000000000" foes="00110000000001000000000000" cont="1"/>
        <request index="6"  response="10101000000000000000010101" foes="10101000000101000010011111" cont="0"/>
        <request index="7"  response="00110000000000000001000000" foes="00110000000101000001000000" cont="1"/>
        <request index="8"  response="10101000001000000000010100" foes="10101000001101000000011110" cont="0"/>
        <request index="9"  response="10101000001000000000010100" foes="10101000001101000000011110" cont="0"/>
        <request index="10" response="01100110101000000000010000" foes="01100110101101000000011000" cont="1"/>
        <request index="11" response="01100000100000000000000000" foes="01100000100000000000000000" cont="1"/>
        <request index="12" response="01010110100000011111110000" foes="01010110100010011111110000" cont="0"/>
        <request index="13" response="01100110100001000000000000" foes="01100110100001000000000000" cont="1"/>
        <request index="14" response="01011110100000011111010000" foes="01011110100000011111010000" cont="0"/>
        <request index="15" response="11001110100000011100001010" foes="11001110100000011100001010" cont="1"/>
        <request index="16" response="11000000000000000000000000" foes="11000000000000000000000010" cont="1"/>
        <request index="17" response="10100000001010110000000000" foes="10100001001111110000001010" cont="0"/>
        <request index="18" response="11000000100000000000000000" foes="11000000100000000000001010" cont="1"/>
        <request index="19" response="10100000001010010000010000" foes="10100000001111010000011010" cont="0"/>
        <request index="20" response="10100000001010010000010000" foes="10100000001111010000011010" cont="0"/>
        <request index="21" response="10010000001000001101010000" foes="10010000001100001101011010" cont="1"/>
        <request index="22" response="00000000000000000000000000" foes="00001000000101000010111111" cont="0"/>
        <request index="23" response="00000000000000000000000000" foes="00000110100010111111110000" cont="0"/>
        <request index="24" response="00000000000000000000000000" foes="00000001011111110000001010" cont="0"/>
        <request index="25" response="00000000000000000000000000" foes="00001111111000001101000101" cont="0"/>
    </junction>
    <junction id="1" type="dead_end" x="-13.25" y="-200.00" incLanes="1i_0 1i_1 1i_2 1i_3" intLanes="" shape="-0.38,-200.00 -12.77,-200.00 -3.37,-200.00" customShape="1"/>
    <junction id="2" type="dead_end" x="200.00" y="-5.20" incLanes="2i_0 2i_1 2i_2 2i_3 2i_4" intLanes="" shape="200.00,-5.20 200.00,21.85 200.00,-18.75"/>
    <junction id="3" type="dead_end" x="14.50" y="200.00" incLanes="3i_0 3i_1 3i_2 3i_3" intLanes="" shape="14.50,200.00 3.64,200.84 25.14,199.18"/>
    <junction id="4" type="dead_end" x="-200.00" y="-2.00" incLanes="4i_0 4i_1 4i_2 4i_3 4i_4 4i_5" intLanes="" shape="-200.00,-2.00 -199.97,-19.11 -200.05,21.62"/>
    <junction id="a1" type="priority" x="150.00" y="-180.00" incLanes="a4toa1_0" intLanes=":a1_0_0" shape="146.80,-180.00 150.00,-180.00 150.00,-183.20 148.22,-182.84 147.60,-182.40 147.16,-181.78 146.89,-180.98">
        <request index="0" response="0" foes="0" cont="0"/>
    </junction>
    <junction id="a2" type="priority" x="200.00" y="-180.00" incLanes="a1toa2_0" intLanes=":a2_0_0" shape="200.00,-180.00 203.20,-180.00 202.84,-181.78 202.40,-182.40 201.78,-182.84 200.98,-183.11 200.00,-183.20">
        <request index="0" response="0" foes="0" cont="0"/>
    </junction>
    <junction id="a3" type="priority" x="200.00" y="-150.00" incLanes="a2toa3_0" intLanes=":a3_0_0" shape="203.20,-150.00 200.00,-150.00 200.00,-146.80 201.78,-147.16 202.40,-147.60 202.84,-148.22 203.11,-149.02">
        <request index="0" response="0" foes="0" cont="0"/>
    </junction>
    <junction id="a4" type="priority" x="150.00" y="-150.00" incLanes="a3toa4_0" intLanes=":a4_0_0" shape="150.00,-146.80 150.00,-150.00 146.80,-150.00 147.16,-148.22 147.60,-147.60 148.22,-147.16 149.02,-146.89">
        <request index="0" response="0" foes="0" cont="0"/>
    </junction>

    <junction id=":0_22_0" type="internal" x="-20.00" y="19.97" incLanes=":0_0_0" intLanes=":0_6_0 :0_8_0 :0_8_1 :0_15_0 :0_c0_0 :0_c3_0"/>
    <junction id=":0_23_0" type="internal" x="-5.89" y="27.43" incLanes=":0_2_0 3o_1" intLanes=":0_1_0 :0_6_0 :0_8_0 :0_8_1 :0_15_0 :0_c0_0 :0_c3_0"/>
    <junction id=":0_24_0" type="internal" x="20.00" y="-5.99" incLanes=":0_4_0" intLanes=":0_6_0 :0_8_0 :0_8_1 :0_10_0 :0_11_0 :0_12_0 :0_13_0 :0_14_0 :0_17_0 :0_19_0 :0_19_1 :0_21_0 :0_c0_0 :0_c1_0"/>
    <junction id=":0_25_0" type="internal" x="10.16" y="28.66" incLanes=":0_5_0" intLanes=":0_12_0 :0_14_0 :0_21_0 :0_c0_0 :0_c1_0"/>
    <junction id=":0_26_0" type="internal" x="15.65" y="18.38" incLanes=":0_7_0 2o_1" intLanes=":0_6_0 :0_12_0 :0_14_0 :0_21_0 :0_c0_0 :0_c1_0"/>
    <junction id=":0_27_0" type="internal" x="-1.92" y="-25.51" incLanes=":0_10_0" intLanes=":0_1_0 :0_3_0 :0_4_0 :0_12_0 :0_14_0 :0_15_0 :0_16_0 :0_17_0 :0_18_0 :0_19_0 :0_19_1 :0_c1_0 :0_c2_0"/>
    <junction id=":0_28_0" type="internal" x="20.00" y="-16.80" incLanes=":0_11_0" intLanes=":0_4_0 :0_17_0 :0_19_0 :0_19_1 :0_c1_0 :0_c2_0"/>
    <junction id=":0_29_0" type="internal" x="6.80" y="-23.76" incLanes=":0_13_0 1o_1" intLanes=":0_4_0 :0_12_0 :0_17_0 :0_19_0 :0_19_1 :0_c1_0 :0_c2_0"/>
    <junction id=":0_30_0" type="internal" x="-0.32" y="-7.53" incLanes=":0_15_0 3o_1 3o_2 3o_3" intLanes=":0_0_0 :0_1_0 :0_2_0 :0_3_0 :0_6_0 :0_8_0 :0_8_1 :0_10_0 :0_17_0 :0_19_0 :0_19_1 :0_21_0 :0_c2_0 :0_c3_0"/>
    <junction id=":0_31_0" type="internal" x="-8.65" y="-25.01" incLanes=":0_16_0" intLanes=":0_1_0 :0_3_0 :0_10_0 :0_c2_0 :0_c3_0"/>
    <junction id=":0_32_0" type="internal" x="-14.96" y="-15.31" incLanes=":0_18_0 4o_1" intLanes=":0_1_0 :0_3_0 :0_10_0 :0_17_0 :0_c2_0 :0_c3_0"/>
    <junction id=":0_33_0" type="internal" x="2.95" y="29.17" incLanes=":0_21_0" intLanes=":0_1_0 :0_3_0 :0_4_0 :0_5_0 :0_6_0 :0_7_0 :0_8_0 :0_8_1 :0_12_0 :0_14_0 :0_15_0 :0_c0_0 :0_c3_0"/>

    <connection from="1o" to="2i" fromLane="1" toLane="1" via=":0_11_0" tl="0" linkIndex="12" dir="r" state="o"/>
    <connection from="1o" to="3i" fromLane="1" toLane="1" via=":0_12_0" tl="0" linkIndex="13" dir="s" state="o"/>
    <connection from="1o" to="2i" fromLane="2" toLane="2" via=":0_13_0" tl="0" linkIndex="14" dir="r" state="o"/>
    <connection from="1o" to="3i" fromLane="3" toLane="3" via=":0_14_0" tl="0" linkIndex="16" dir="s" state="o"/>
    <connection from="1o" to="4i" fromLane="3" toLane="4" via=":0_15_0" tl="0" linkIndex="17" dir="l" state="o"/>
    <connection from="2o" to="3i" fromLane="1" toLane="1" via=":0_5_0" tl="0" linkIndex="6" dir="r" state="o"/>
    <connection from="2o" to="4i" fromLane="1" toLane="1" via=":0_6_0" tl="0" linkIndex="7" dir="s" state="o"/>
    <connection from="2o" to="3i" fromLane="2" toLane="2" via=":0_7_0" tl="0" linkIndex="8" dir="r" state="o"/>
    <connection from="2o" to="4i" fromLane="3" toLane="3" via=":0_8_0" tl="0" linkIndex="9" dir="s" state="o"/>
    <connection from="2o" to="4i" fromLane="4" toLane="4" via=":0_8_1" tl="0" linkIndex="10" dir="s" state="o"/>
    <connection from="2o" to="1i" fromLane="5" toLane="3" via=":0_10_0" tl="0" linkIndex="11" dir="l" state="o"/>
    <connection from="3o" to="4i" fromLane="1" toLane="1" via=":0_0_0" tl="0" linkIndex="0" dir="r" state="o"/>
    <connection from="3o" to="1i" fromLane="1" toLane="1" via=":0_1_0" tl="0" linkIndex="1" dir="s" state="o"/>
    <connection from="3o" to="4i" fromLane="2" toLane="2" via=":0_2_0" tl="0" linkIndex="2" dir="r" state="o"/>
    <connection from="3o" to="1i" fromLane="3" toLane="3" via=":0_3_0" tl="0" linkIndex="4" dir="s" state="o"/>
    <connection from="3o" to="2i" fromLane="3" toLane="4" via=":0_4_0" tl="0" linkIndex="5" dir="l" state="o"/>
    <connection from="4o" to="1i" fromLane="1" toLane="1" via=":0_16_0" tl="0" linkIndex="18" dir="r" state="o"/>
    <connection from="4o" to="2i" fromLane="1" toLane="1" via=":0_17_0" tl="0" linkIndex="19" dir="s" state="o"/>
    <connection from="4o" to="1i" fromLane="2" toLane="2" via=":0_18_0" tl="0" linkIndex="20" dir="r" state="o"/>
    <connection from="4o" to="2i" fromLane="3" toLane="3" via=":0_19_0" tl="0" linkIndex="21" dir="s" state="o"/>
    <connection from="4o" to="2i" fromLane="4" toLane="4" via=":0_19_1" tl="0" linkIndex="22" dir="s" state="o"/>
    <connection from="4o" to="3i" fromLane="5" toLane="3" via=":0_21_0" tl="0" linkIndex="23" dir="l" state="o"/>
    <connection from="a1toa2" to="a2toa3" fromLane="0" toLane="0" via=":a2_0_0" dir="l" state="M"/>