<routes xmlns:xsi="http://www.w3.org/2001/XMLSchema-instance" xsi:noNamespaceSchemaLocation="http://sumo.dlr.de/xsd/routes_file.xsd">

    <person id="0" depart="33" departPos="130">
        <walk edges="3o 1i"/>
    </person>
    <person id="1" depart="33" departPos="130">
        <walk edges="3o 1i"/>
    </person>
    <person id="2" depart="33" departPos="130">
        <walk edges="3o 1i"/>
    </person>
    <person id="3" depart="33" departPos="130">
        <walk edges="4o 3o"/>
    </person>
    <person id="4" depart="33" departPos="130">
        <walk edges="4o 3o"/>
    </person>
    <person id="5" depart="33" departPos="130">
        <walk edges="4o 3o"/>
    </person>

</routes>