<?xml version="1.0" encoding="UTF-8"?>

<!-- generated on 11/07/21 14:09:33 by Eclipse SUMO netedit Version 1.6.0
<configuration xmlns:xsi="http://www.w3.org/2001/XMLSchema-instance" xsi:noNamespaceSchemaLocation="http://sumo.dlr.de/xsd/netconvertConfiguration.xsd">

    <input>
        <sumo-net-file value="D:\codecode\AAAmine\Didi\Didi_proj\env_build\sumo_files\user_defined\green_only_ego_left_1\a.net.xml"/>
    </input>

    <output>
        <output-file value="D:\codecode\AAAmine\Didi\Didi_proj\env_build\sumo_files\user_defined\green_only_ego_left_1\a.net.xml"/>
    </output>

    <processing>
        <geometry.min-radius.fix.railways value="false"/>
        <geometry.max-grade.fix value="false"/>
        <offset.disable-normalization value="true"/>
        <lefthand value="false"/>
    </processing>

    <junctions>
        <no-internal-links value="false"/>
        <no-turnarounds value="true"/>
        <junctions.corner-detail value="5"/>
        <junctions.limit-turn-speed value="5.5"/>
        <rectangular-lane-cut value="false"/>
    </junctions>

    <pedestrian>
        <walkingareas value="false"/>
    </pedestrian>

    <report>
        <aggregate-warnings value="5"/>
    </report>

</configuration>
-->

<net version="1.6" junctionCornerDetail="5" limitTurnSpeed="5.50" xmlns:xsi="http://www.w3.org/2001/XMLSchema-instance" xsi:noNamespaceSchemaLocation="http://sumo.dlr.de/xsd/net_file.xsd">

    <location netOffset="0.00,0.00" convBoundary="-200.00,-200.00,241.95,200.00" origBoundary="-10000000000.00,-10000000000.00,10000000000.00,10000000000.00" projParameter="!"/>

    <edge id=":0_0" function="internal">
        <lane id=":0_0_0" index="0" allow="bicycle" speed="11.78" length="28.64" width="1.00" shape="-10.68,38.00 -12.01,29.61 -16.01,23.62 -22.67,20.02 -28.00,19.33"/>
    </edge>
    <edge id=":0_1" function="internal">
        <lane id=":0_1_0" index="0" allow="bicycle" speed="13.89" length="76.00" width="1.00" shape="-10.68,38.00 -10.81,-38.00"/>
    </edge>
    <edge id=":0_2" function="internal">
        <lane id=":0_2_0" index="0" speed="12.62" length="9.54" width="3.75" shape="-8.18,38.00 -9.67,28.57"/>
    </edge>
    <edge id=":0_3" function="internal">
        <lane id=":0_3_0" index="0" speed="13.89" length="76.00" width="4.00" shape="-4.18,38.00 -4.31,-38.00"/>
    </edge>
    <edge id=":0_4" function="internal">
        <lane id=":0_4_0" index="0" speed="13.89" length="60.32" width="3.75" shape="-0.56,38.00 1.49,17.52 7.59,2.89 17.76,-5.89 28.00,-7.99"/>
    </edge>
    <edge id=":0_22" function="internal">
        <lane id=":0_22_0" index="0" allow="bicycle" speed="11.78" length="4.03" width="1.00" shape="-28.00,19.33 -32.00,18.82"/>
    </edge>
    <edge id=":0_23" function="internal">
        <lane id=":0_23_0" index="0" speed="12.62" length="27.06" width="3.75" shape="-9.67,28.57 -14.13,21.84 -21.58,17.79 -32.00,16.44"/>
    </edge>
    <edge id=":0_24" function="internal">
        <lane id=":0_24_0" index="0" speed="13.89" length="4.08" width="3.75" shape="28.00,-7.99 32.00,-8.82"/>
    </edge>
    <edge id=":0_5" function="internal">
        <lane id=":0_5_0" index="0" allow="bicycle" speed="11.68" length="28.04" width="1.00" shape="32.00,18.59 23.09,19.80 16.72,23.44 12.89,29.51 12.22,34.00"/>
    </edge>
    <edge id=":0_6" function="internal">
        <lane id=":0_6_0" index="0" allow="bicycle" speed="13.89" length="64.00" width="1.00" shape="32.00,18.59 -32.00,18.82"/>
    </edge>
    <edge id=":0_7" function="internal">
        <lane id=":0_7_0" index="0" speed="12.52" length="10.10" width="4.00" shape="32.00,16.21 21.99,17.58"/>
    </edge>
    <edge id=":0_8" function="internal">
        <lane id=":0_8_0" index="0" speed="13.89" length="64.00" width="3.75" shape="32.00,12.46 -32.00,12.69"/>
        <lane id=":0_8_1" index="1" speed="13.89" length="64.00" width="3.75" shape="32.00,8.71 -32.00,8.94"/>
    </edge>
    <edge id=":0_10" function="internal">
        <lane id=":0_10_0" index="0" speed="13.89" length="59.98" width="4.00" shape="32.00,4.96 16.12,2.28 4.78,-5.77 -2.03,-19.20 -3.83,-34.00"/>
    </edge>
    <edge id=":0_25" function="internal">
        <lane id=":0_25_0" index="0" allow="bicycle" speed="11.68" length="4.04" width="1.00" shape="12.22,34.00 11.62,38.00"/>
    </edge>
    <edge id=":0_26" function="internal">
        <lane id=":0_26_0" index="0" speed="12.52" length="25.92" width="4.00" shape="21.99,17.58 14.84,21.66 10.55,28.47 9.12,38.00"/>
    </edge>
    <edge id=":0_27" function="internal">
        <lane id=":0_27_0" index="0" speed="13.89" length="4.03" width="4.00" shape="-3.83,-34.00 -4.31,-38.00"/>
    </edge>
    <edge id=":0_11" function="internal">
        <lane id=":0_11_0" index="0" allow="bicycle" speed="11.68" length="28.12" width="1.00" shape="11.44,-38.00 12.73,-29.55 16.58,-23.52 23.01,-19.90 28.00,-19.23"/>
    </edge>
    <edge id=":0_12" function="internal">
        <lane id=":0_12_0" index="0" allow="bicycle" speed="13.89" length="76.00" width="1.00" shape="11.44,-38.00 11.62,38.00"/>
    </edge>
    <edge id=":0_13" function="internal">
        <lane id=":0_13_0" index="0" speed="12.54" length="9.74" width="3.75" shape="8.94,-38.00 10.38,-28.51 10.46,-28.39"/>
    </edge>
    <edge id=":0_14" function="internal">
        <lane id=":0_14_0" index="0" speed="13.89" length="76.00" width="4.00" shape="4.94,-38.00 5.12,38.00"/>
    </edge>
    <edge id=":0_15" function="internal">
        <lane id=":0_15_0" index="0" speed="13.89" length="61.02" width="3.75" shape="1.31,-38.00 -0.76,-17.46 -7.00,-2.79 -17.42,6.01 -28.00,8.14"/>
    </edge>
    <edge id=":0_28" function="internal">
        <lane id=":0_28_0" index="0" allow="bicycle" speed="11.68" length="4.04" width="1.00" shape="28.00,-19.23 32.00,-18.69"/>
    </edge>
    <edge id=":0_29" function="internal">
        <lane id=":0_29_0" index="0" speed="12.54" length="26.34" width="3.75" shape="10.46,-28.39 14.71,-21.73 21.91,-17.67 32.00,-16.32"/>
    </edge>
    <edge id=":0_30" function="internal">
        <lane id=":0_30_0" index="0" speed="13.89" length="4.08" width="3.75" shape="-28.00,8.14 -32.00,8.94"/>
    </edge>
    <edge id=":0_16" function="internal">
        <lane id=":0_16_0" index="0" allow="bicycle" speed="11.80" length="28.79" width="1.00" shape="-32.00,-18.48 -22.73,-19.70 -16.10,-23.36 -12.13,-29.46 -11.43,-34.00"/>
    </edge>
    <edge id=":0_17" function="internal">
        <lane id=":0_17_0" index="0" allow="bicycle" speed="13.89" length="64.00" width="1.00" shape="-32.00,-18.48 32.00,-18.69"/>
    </edge>
    <edge id=":0_18" function="internal">
        <lane id=":0_18_0" index="0" speed="12.63" length="10.46" width="4.00" shape="-32.00,-16.11 -21.63,-17.47"/>
    </edge>
    <edge id=":0_19" function="internal">
        <lane id=":0_19_0" index="0" speed="13.89" length="64.00" width="3.75" shape="-32.00,-12.36 32.00,-12.57"/>
        <lane id=":0_19_1" index="1" speed="13.89" length="64.00" width="3.75" shape="-32.00,-8.61 32.00,-8.82"/>
    </edge>
    <edge id=":0_21" function="internal">
        <lane id=":0_21_0" index="0" speed="13.89" length="60.53" width="4.00" shape="-32.00,-4.86 -15.75,-2.18 -4.15,5.86 2.81,19.25 4.62,34.00"/>
    </edge>
    <edge id=":0_31" function="internal">
        <lane id=":0_31_0" index="0" allow="bicycle" speed="11.80" length="4.05" width="1.00" shape="-11.43,-34.00 -10.81,-38.00"/>
    </edge>
    <edge id=":0_32" function="internal">
        <lane id=":0_32_0" index="0" speed="12.63" length="26.32" width="4.00" shape="-21.63,-17.47 -14.23,-21.58 -9.79,-28.42 -8.31,-38.00"/>
    </edge>
    <edge id=":0_33" function="internal">
        <lane id=":0_33_0" index="0" speed="13.89" length="4.03" width="4.00" shape="4.62,34.00 5.12,38.00"/>
    </edge>
    <edge id=":0_c0" function="crossing" crossingEdges="3i 3o">
        <lane id=":0_c0_0" index="0" allow="pedestrian" speed="1.00" length="23.30" width="4.00" shape="12.12,36.00 -11.18,36.00"/>
    </edge>
    <edge id=":0_c1" function="crossing" crossingEdges="2i 2o">
        <lane id=":0_c1_0" index="0" allow="pedestrian" speed="1.00" length="38.28" width="4.00" shape="30.00,-19.19 30.00,19.09"/>
    </edge>
    <edge id=":0_c2" function="crossing" crossingEdges="1i 1o">
        <lane id=":0_c2_0" index="0" allow="pedestrian" speed="1.00" length="23.25" width="4.00" shape="-11.31,-36.00 11.94,-36.00"/>
    </edge>
    <edge id=":0_c3" function="crossing" crossingEdges="4i 4o">
        <lane id=":0_c3_0" index="0" allow="pedestrian" speed="1.00" length="38.30" width="4.00" shape="-30.00,19.32 -30.00,-18.98"/>
    </edge>
    <edge id=":0_w0" function="walkingarea">
        <lane id=":0_w0_0" index="0" allow="pedestrian" speed="1.00" length="18.01" width="4.00" shape="-32.00,19.32 -32.00,21.32 -13.18,38.00 -11.18,38.00 -11.76,32.29 -13.49,27.62 -16.38,23.99 -20.43,21.40 -25.64,19.84"/>
    </edge>
    <edge id=":0_w1" function="walkingarea">
        <lane id=":0_w1_0" index="0" allow="pedestrian" speed="1.00" length="25.30" width="4.00" shape="-10.18,38.00 -6.18,38.00 -6.18,38.00 -2.18,38.00 -2.18,38.00 1.07,38.00 1.12,38.00 3.12,38.00 3.12,38.00 7.12,38.00 7.12,38.00 11.12,38.00"/>
    </edge>
    <edge id=":0_w2" function="walkingarea">
        <lane id=":0_w2_0" index="0" allow="pedestrian" speed="1.00" length="17.66" width="4.00" shape="12.12,38.00 14.12,38.00 32.00,21.09 32.00,19.09 25.93,19.61 20.96,21.19 17.09,23.82 14.33,27.50 12.67,32.22"/>
    </edge>
    <edge id=":0_w3" function="walkingarea">
        <lane id=":0_w3_0" index="0" allow="pedestrian" speed="1.00" length="40.28" width="10.00" shape="32.00,18.09 32.00,14.34 32.00,14.34 32.00,10.59 32.00,10.59 32.00,6.84 32.00,6.84 32.00,3.09 32.00,3.09 32.00,-6.91 32.00,-6.94 32.00,-10.69 32.00,-10.69 32.00,-14.44 32.00,-14.44 32.00,-18.19"/>
    </edge>
    <edge id=":0_w4" function="walkingarea">
        <lane id=":0_w4_0" index="0" allow="pedestrian" speed="1.00" length="17.69" width="4.00" shape="32.00,-19.19 32.00,-21.19 13.94,-38.00 11.94,-38.00 12.50,-32.25 14.17,-27.55 16.96,-23.89 20.86,-21.28 25.87,-19.71"/>
    </edge>
    <edge id=":0_w5" function="walkingarea">
        <lane id=":0_w5_0" index="0" allow="pedestrian" speed="1.00" length="25.25" width="4.00" shape="10.94,-38.00 6.94,-38.00 6.94,-38.00 2.94,-38.00 2.94,-38.00 -0.31,-38.00 -0.31,-38.00 -2.31,-38.00 -2.31,-38.00 -6.31,-38.00 -6.31,-38.00 -10.31,-38.00"/>
    </edge>
    <edge id=":0_w6" function="walkingarea">
        <lane id=":0_w6_0" index="0" allow="pedestrian" speed="1.00" length="18.10" width="4.00" shape="-11.31,-38.00 -13.31,-38.00 -32.00,-20.98 -32.00,-18.98 -25.68,-19.51 -20.50,-21.09 -16.48,-23.73 -13.61,-27.43 -11.88,-32.19"/>
    </edge>
    <edge id=":0_w7" function="walkingarea">
        <lane id=":0_w7_0" index="0" allow="pedestrian" speed="1.00" length="40.30" width="10.00" shape="-32.00,-17.98 -32.00,-14.23 -32.00,-14.23 -32.00,-10.48 -32.00,-10.48 -32.00,-6.73 -32.00,-6.73 -32.00,-2.98 -32.00,-2.93 -32.00,7.07 -32.00,7.07 -32.00,10.82 -32.00,10.82 -32.00,14.57 -32.00,14.57 -32.00,18.32"/>
    </edge>
    <edge id=":1_w0" function="walkingarea">
        <lane id=":1_w0_0" index="0" allow="pedestrian" speed="1.00" length="25.25" width="4.00" shape="-10.38,-200.00 -6.38,-200.00 -6.38,-200.00 -2.38,-200.00 -2.38,-200.00 -0.38,-200.00 -0.38,-200.00 2.87,-200.00 2.87,-200.00 6.87,-200.00 6.87,-200.00 10.87,-200.00"/>
    </edge>
    <edge id=":1_w1" function="walkingarea">
        <lane id=":1_w1_0" index="0" allow="pedestrian" speed="1.00" length="25.25" width="2.00" shape="11.87,-200.01 13.87,-200.01 -13.38,-200.00 -11.38,-200.00"/>
    </edge>
    <edge id=":2_w0" function="walkingarea">
        <lane id=":2_w0_0" index="0" allow="pedestrian" speed="1.00" length="40.25" width="10.00" shape="200.00,-18.25 200.00,-14.50 200.00,-14.50 200.00,-10.75 200.00,-10.75 200.00,-7.00 200.00,-7.00 200.01,3.00 200.01,3.00 200.01,6.75 200.01,6.75 200.01,10.50 200.01,10.50 200.01,14.25 200.01,14.25 200.01,18.00"/>
    </edge>
    <edge id=":2_w1" function="walkingarea">
        <lane id=":2_w1_0" index="0" allow="pedestrian" speed="1.00" length="40.25" width="2.00" shape="200.01,19.00 200.01,21.00 200.00,-21.25 200.00,-19.25"/>
    </edge>
    <edge id=":3_w0" function="walkingarea">
        <lane id=":3_w0_0" index="0" allow="pedestrian" speed="1.00" length="25.25" width="4.00" shape="11.00,200.01 7.00,200.00 7.00,200.00 3.00,200.00 3.00,200.00 1.00,200.00 1.00,200.00 -2.25,200.00 -2.25,200.00 -6.25,200.00 -6.25,200.00 -10.25,200.00"/>
    </edge>
    <edge id=":3_w1" function="walkingarea">
        <lane id=":3_w1_0" index="0" allow="pedestrian" speed="1.00" length="25.25" width="2.00" shape="-11.25,199.99 -13.25,199.99 14.00,200.01 12.00,200.01"/>
    </edge>
    <edge id=":4_w0" function="walkingarea">
        <lane id=":4_w0_0" index="0" allow="pedestrian" speed="1.00" length="40.25" width="10.00" shape="-200.01,18.25 -200.01,14.50 -200.01,14.50 -200.01,10.75 -200.01,10.75 -200.00,7.00 -200.00,7.00 -200.00,-3.00 -200.00,-3.00 -200.00,-6.75 -200.00,-6.75 -200.00,-10.50 -200.00,-10.50 -200.00,-14.25 -200.00,-14.25 -200.00,-18.00"/>
    </edge>
    <edge id=":4_w1" function="walkingarea">
        <lane id=":4_w1_0" index="0" allow="pedestrian" speed="1.00" length="40.25" width="2.00" shape="-200.00,-19.00 -200.00,-21.00 -200.01,21.25 -200.01,19.25"/>
    </edge>
    <edge id=":a1_0" function="internal">
        <lane id=":a1_0_0" index="0" speed="6.07" length="7.88" shape="152.16,-164.63 152.41,-166.78 153.29,-168.32 154.80,-169.25 156.95,-169.56"/>
    </edge>
    <edge id=":a1_1" function="internal">
        <lane id=":a1_1_0" index="0" speed="3.90" length="2.63" shape="156.96,-166.36 156.24,-166.25 155.74,-165.95 155.44,-165.43 155.36,-164.71"/>
    </edge>
    <edge id=":a1_w0" function="walkingarea">
        <lane id=":a1_w0_0" index="0" allow="pedestrian" speed="1.00" length="4.29" width="3.20" shape="150.56,-164.58 153.76,-164.67 153.76,-164.67 156.96,-164.76 156.96,-164.76 156.95,-167.96 156.95,-167.96 156.94,-171.16 150.69,-166.59 151.19,-168.23 152.07,-169.51 153.32,-170.42 154.94,-170.97"/>
    </edge>
    <edge id=":a2_0" function="internal">
        <lane id=":a2_0_0" index="0" speed="3.91" length="2.54" shape="239.15,-165.00 239.04,-165.69 238.73,-166.17 238.24,-166.47 237.55,-166.56"/>
    </edge>
    <edge id=":a2_1" function="internal">
        <lane id=":a2_1_0" index="0" speed="6.08" length="7.61" shape="237.54,-169.76 239.60,-169.47 241.09,-168.60 242.00,-167.14 242.35,-165.09"/>
    </edge>
    <edge id=":a2_w0" function="walkingarea">
        <lane id=":a2_w0_0" index="0" allow="pedestrian" speed="1.00" length="4.23" width="3.20" shape="237.55,-164.96 240.75,-165.05 240.75,-165.05 243.95,-165.13 237.54,-171.36 237.55,-168.16 237.55,-168.16 237.55,-164.96"/>
    </edge>
    <edge id=":a3_0" function="internal">
        <lane id=":a3_0_0" index="0" speed="6.08" length="7.77" shape="243.46,-122.84 243.22,-120.72 242.35,-119.20 240.87,-118.26 238.76,-117.91"/>
    </edge>
    <edge id=":a3_1" function="internal">
        <lane id=":a3_1_0" index="0" speed="3.90" length="2.59" shape="238.70,-121.11 239.40,-121.23 239.90,-121.54 240.18,-122.05 240.27,-122.76"/>
    </edge>
    <edge id=":a3_w0" function="walkingarea">
        <lane id=":a3_w0_0" index="0" allow="pedestrian" speed="1.00" length="4.27" width="3.20" shape="245.06,-122.88 241.87,-122.80 241.87,-122.80 238.67,-122.71 238.67,-122.71 238.73,-119.51 238.73,-119.51 238.80,-116.31 244.94,-120.91 244.44,-119.29 243.58,-118.02 242.35,-117.10 240.76,-116.53"/>
    </edge>
    <edge id=":a4_0" function="internal">
        <lane id=":a4_0_0" index="0" speed="6.08" length="7.70" shape="158.27,-116.27 156.18,-116.52 154.66,-117.38 153.73,-118.85 153.37,-120.93"/>
    </edge>
    <edge id=":a4_1" function="internal">
        <lane id=":a4_1_0" index="0" speed="3.90" length="2.57" shape="156.57,-121.02 156.69,-120.33 157.00,-119.84 157.51,-119.55 158.20,-119.46"/>
    </edge>
    <edge id=":a4_w0" function="walkingarea">
        <lane id=":a4_w0_0" index="0" allow="pedestrian" speed="1.00" length="4.25" width="3.20" shape="158.30,-114.67 158.24,-117.87 158.24,-117.87 158.17,-121.06 158.17,-121.06 154.97,-120.98 154.97,-120.98 151.77,-120.89 156.36,-114.80 154.75,-115.30 153.49,-116.16 152.58,-117.37 152.00,-118.95"/>
    </edge>

    <edge id="1i" from="0" to="1" priority="-1" shape="0.00,0.00 -0.31,-35.26 -0.38,-200.00">
        <lane id="1i_0" index="0" allow="pedestrian" speed="13.89" length="162.00" width="2.00" shape="-12.31,-38.00 -12.38,-200.00"/>
        <lane id="1i_1" index="1" allow="bicycle" speed="13.89" length="162.00" width="1.00" shape="-10.81,-38.00 -10.88,-200.00"/>
        <lane id="1i_2" index="2" speed="13.89" length="162.00" width="4.00" shape="-8.31,-38.00 -8.38,-200.00"/>
        <lane id="1i_3" index="3" speed="13.89" length="162.00" width="4.00" shape="-4.31,-38.00 -4.38,-200.00"/>
        <lane id="1i_4" index="4" allow="pedestrian" speed="13.89" length="162.00" width="2.00" shape="-1.31,-38.00 -1.38,-200.00"/>
    </edge>
    <edge id="1o" from="1" to="0" priority="-1" shape="-0.38,-200.00 -0.31,-35.18 0.00,0.00">
        <lane id="1o_0" index="0" allow="pedestrian" speed="13.89" length="162.00" width="2.00" shape="12.87,-200.01 12.94,-38.00"/>
        <lane id="1o_1" index="1" allow="bicycle" speed="13.89" length="162.00" width="1.00" shape="11.37,-200.00 11.44,-38.00"/>
        <lane id="1o_2" index="2" speed="13.89" length="162.00" width="4.00" shape="8.87,-200.00 8.94,-38.00"/>
        <lane id="1o_3" index="3" speed="13.89" length="162.00" width="4.00" shape="4.87,-200.00 4.94,-38.00"/>
        <lane id="1o_4" index="4" speed="13.89" length="162.00" width="3.25" shape="1.24,-200.00 1.31,-38.00"/>
    </edge>
    <edge id="2i" from="0" to="2" priority="-1" shape="0.00,0.00 28.37,-5.96 26.90,-6.94 200.00,-7.00">
        <lane id="2i_0" index="0" allow="pedestrian" speed="13.89" length="168.00" width="2.00" shape="32.00,-20.19 200.00,-20.25"/>
        <lane id="2i_1" index="1" allow="bicycle" speed="13.89" length="168.00" width="1.00" shape="32.00,-18.69 200.00,-18.75"/>
        <lane id="2i_2" index="2" speed="13.89" length="168.00" width="3.75" shape="32.00,-16.32 200.00,-16.37"/>
        <lane id="2i_3" index="3" speed="13.89" length="168.00" width="3.75" shape="32.00,-12.57 200.00,-12.62"/>
        <lane id="2i_4" index="4" speed="13.89" length="168.00" width="3.75" shape="32.00,-8.82 200.00,-8.87"/>
    </edge>
    <edge id="2o" from="2" to="0" priority="-1" shape="200.00,-7.00 24.23,-6.91 17.36,-5.95 0.00,0.00">
        <lane id="2o_0" index="0" allow="pedestrian" speed="13.89" length="168.01" width="2.00" shape="200.01,20.00 32.00,20.09"/>
        <lane id="2o_1" index="1" allow="bicycle" speed="13.89" length="168.01" width="1.00" shape="200.01,18.50 32.00,18.59"/>
        <lane id="2o_2" index="2" speed="13.89" length="168.01" width="3.75" shape="200.01,16.12 32.00,16.21"/>
        <lane id="2o_3" index="3" speed="13.89" length="168.01" width="3.75" shape="200.01,12.37 32.00,12.46"/>
        <lane id="2o_4" index="4" speed="13.89" length="168.01" width="3.75" shape="200.01,8.62 32.00,8.71"/>
        <lane id="2o_5" index="5" speed="13.89" length="168.01" width="3.75" shape="200.01,4.87 32.00,4.96"/>
        <lane id="2o_6" index="6" allow="pedestrian" speed="13.89" length="168.01" width="10.00" shape="200.00,-2.00 32.00,-1.91"/>
    </edge>
    <edge id="3i" from="0" to="3" priority="-1" shape="0.00,0.00 1.12,31.16 1.00,200.00">
        <lane id="3i_0" index="0" allow="pedestrian" speed="13.89" length="162.01" width="2.00" shape="13.12,38.00 13.00,200.01"/>
        <lane id="3i_1" index="1" allow="bicycle" speed="13.89" length="162.01" width="1.00" shape="11.62,38.00 11.50,200.01"/>
        <lane id="3i_2" index="2" speed="13.89" length="162.01" width="4.00" shape="9.12,38.00 9.00,200.01"/>
        <lane id="3i_3" index="3" speed="13.89" length="162.01" width="4.00" shape="5.12,38.00 5.00,200.00"/>
        <lane id="3i_4" index="4" allow="pedestrian" speed="13.89" length="162.01" width="2.00" shape="2.12,38.00 2.00,200.00"/>
    </edge>
    <edge id="3o" from="3" to="0" priority="-1" shape="1.00,200.00 1.07,35.80 0.00,0.00">
        <lane id="3o_0" index="0" allow="pedestrian" speed="13.89" length="162.00" width="2.00" shape="-12.25,199.99 -12.18,38.00"/>
        <lane id="3o_1" index="1" allow="bicycle" speed="13.89" length="162.00" width="1.00" shape="-10.75,199.99 -10.68,38.00"/>
        <lane id="3o_2" index="2" speed="13.89" length="162.00" width="4.00" shape="-8.25,200.00 -8.18,38.00"/>
        <lane id="3o_3" index="3" speed="13.89" length="162.00" width="4.00" shape="-4.25,200.00 -4.18,38.00"/>
        <lane id="3o_4" index="4" speed="13.89" length="162.00" width="3.25" shape="-0.62,200.00 -0.56,38.00"/>
    </edge>
    <edge id="4i" from="0" to="4" priority="-1" shape="0.00,0.00 -16.93,-2.04 -23.91,-2.93 -200.00,-3.00">
        <lane id="4i_0" index="0" allow="pedestrian" speed="13.89" length="168.01" width="2.00" shape="-32.00,20.32 -200.01,20.25"/>
        <lane id="4i_1" index="1" allow="bicycle" speed="13.89" length="168.01" width="1.00" shape="-32.00,18.82 -200.01,18.75"/>
        <lane id="4i_2" index="2" speed="13.89" length="168.01" width="3.75" shape="-32.00,16.44 -200.01,16.37"/>
        <lane id="4i_3" index="3" speed="13.89" length="168.01" width="3.75" shape="-32.00,12.69 -200.01,12.62"/>
        <lane id="4i_4" index="4" speed="13.89" length="168.01" width="3.75" shape="-32.00,8.94 -200.00,8.87"/>
        <lane id="4i_5" index="5" allow="pedestrian" speed="13.89" length="168.01" width="10.00" shape="-32.00,2.07 -200.00,2.00"/>
    </edge>
    <edge id="4o" from="4" to="0" priority="-1" shape="-200.00,-3.00 -26.41,-2.98 -24.71,-2.00 0.00,0.00">
        <lane id="4o_0" index="0" allow="pedestrian" speed="13.89" length="168.00" width="2.00" shape="-200.00,-20.00 -32.00,-19.98"/>
        <lane id="4o_1" index="1" allow="bicycle" speed="13.89" length="168.00" width="1.00" shape="-200.00,-18.50 -32.00,-18.48"/>
        <lane id="4o_2" index="2" speed="13.89" length="168.00" width="3.75" shape="-200.00,-16.12 -32.00,-16.11"/>
        <lane id="4o_3" index="3" speed="13.89" length="168.00" width="3.75" shape="-200.00,-12.37 -32.00,-12.36"/>
        <lane id="4o_4" index="4" speed="13.89" length="168.00" width="3.75" shape="-200.00,-8.62 -32.00,-8.61"/>
        <lane id="4o_5" index="5" speed="13.89" length="168.00" width="3.75" shape="-200.00,-4.87 -32.00,-4.86"/>
    </edge>
    <edge id="a1toa2" from="a1" to="a2" priority="-1">
        <lane id="a1toa2_0" index="0" speed="13.89" length="80.59" shape="156.95,-169.56 237.54,-169.76"/>
    </edge>
    <edge id="a2toa3" from="a2" to="a3" priority="-1">
        <lane id="a2toa3_0" index="0" speed="13.89" length="42.26" shape="242.35,-165.09 243.46,-122.84"/>
    </edge>
    <edge id="a3toa4" from="a3" to="a4" priority="-1">
        <lane id="a3toa4_0" index="0" speed="13.89" length="80.51" shape="238.76,-117.91 158.27,-116.27"/>
    </edge>
    <edge id="a4toa1" from="a4" to="a1" priority="-1">
        <lane id="a4toa1_0" index="0" speed="13.89" length="43.71" shape="153.37,-120.93 152.16,-164.63"/>
    </edge>
    <edge id="gneE5" from="a4" to="a3" priority="-1">
        <lane id="gneE5_0" index="0" speed="13.89" length="80.51" shape="158.20,-119.46 238.70,-121.11"/>
    </edge>
    <edge id="gneE6" from="a3" to="a2" priority="-1">
        <lane id="gneE6_0" index="0" speed="13.89" length="42.26" shape="240.27,-122.76 239.15,-165.00"/>
    </edge>
    <edge id="gneE7" from="a2" to="a1" priority="-1">
        <lane id="gneE7_0" index="0" speed="13.89" length="80.59" shape="237.55,-166.56 156.96,-166.36"/>
    </edge>
    <edge id="gneE8" from="a1" to="a4" priority="-1">
        <lane id="gneE8_0" index="0" speed="13.89" length="43.71" shape="155.36,-164.71 156.57,-121.02"/>
    </edge>

    <tlLogic id="0" type="static" programID="0" offset="0">
        <phase duration="25" state="gGgGGgrgrrrgGgGGgrgrrrrGrGrr"/>
        <phase duration="15" state="grgGGgrgrrrgrgGGgrgrrrrrrrrr"/>
        <phase duration="5"  state="grgyygrgrrrgrgyygrgrrrrrrrrr"/>
        <phase duration="20" state="grgrrgrgrrrgrgrrgrgrrrrrrrrr"/>
        <phase duration="25" state="grgrrgGgGGrgrgrrgGgGGrGrGrrr"/>
        <phase duration="5"  state="grgrrgrgyyrgrgrrgrgyyrrrrrrr"/>
        <phase duration="10" state="grgrrgrgrrrgrgrrgrgrrrrrrrrr"/>
        <phase duration="15" state="grgrrgrgrrGgrgrrgrgrrGrrrrrr"/>
        <phase duration="5"  state="grgrrgrgrrygrgrrgrgrryrrrrrr"/>
        <phase duration="10" state="grgrrgrgrrrgrgrrgrgrrrrrrrrr"/>
    </tlLogic>

    <junction id="0" type="traffic_light" x="0.00" y="0.00" incLanes="3o_0 3o_1 3o_2 3o_3 3o_4 2o_0 2o_1 2o_2 2o_3 2o_4 2o_5 2o_6 1o_0 1o_1 1o_2 1o_3 1o_4 4o_0 4o_1 4o_2 4o_3 4o_4 4o_5 :0_w2_0 :0_w4_0 :0_w6_0 :0_w0_0" intLanes=":0_22_0 :0_1_0 :0_23_0 :0_3_0 :0_24_0 :0_25_0 :0_6_0 :0_26_0 :0_8_0 :0_8_1 :0_27_0 :0_28_0 :0_12_0 :0_29_0 :0_14_0 :0_30_0 :0_31_0 :0_17_0 :0_32_0 :0_19_0 :0_19_1 :0_33_0 :0_c0_0 :0_c1_0 :0_c2_0 :0_c3_0" shape="-13.38,-38.00 -32.00,-21.00 -32.00,21.25 -13.30,38.00 14.10,38.00 32.00,21.05 32.00,-21.25 14.00,-38.00" customShape="1">
        <request index="0"  response="10010000000000000001000000" foes="10010000000000000001000000" cont="1"/>
        <request index="1"  response="01011111111000001101000000" foes="01011111111000001101000100" cont="0"/>
        <request index="2"  response="10010000000000001101000010" foes="10010000000000001101000010" cont="1"/>
        <request index="3"  response="01011111101000011101000000" foes="01011111101000011101000000" cont="0"/>
        <request index="4"  response="00111110000101011101000000" foes="00111110000101011101000000" cont="1"/>
        <request index="5"  response="00110000000000000000000000" foes="00110000000001000000000000" cont="1"/>
        <request index="6"  response="10101000000000000000010101" foes="10101000000101000010011111" cont="0"/>
        <request index="7"  response="00110000000000000001000000" foes="00110000000101000001000000" cont="1"/>
        <request index="8"  response="10101000001000000000010100" foes="10101000001101000000011110" cont="0"/>
        <request index="9"  response="10101000001000000000010100" foes="10101000001101000000011110" cont="0"/>
        <request index="10" response="01100110101000000000010000" foes="01100110101101000000011000" cont="1"/>
        <request index="11" response="01100000100000000000000000" foes="01100000100000000000000000" cont="1"/>
        <request index="12" response="01010110100000011111110000" foes="01010110100010011111110000" cont="0"/>
        <request index="13" response="01100110100001000000000000" foes="01100110100001000000000000" cont="1"/>
        <request index="14" response="01011110100000011111010000" foes="01011110100000011111010000" cont="0"/>
        <request index="15" response="11001110100000011100001010" foes="11001110100000011100001010" cont="1"/>
        <request index="16" response="11000000000000000000000000" foes="11000000000000000000000010" cont="1"/>
        <request index="17" response="10100000001010110000000000" foes="10100001001111110000001010" cont="0"/>
        <request index="18" response="11000000100000000000000000" foes="11000000100000000000001010" cont="1"/>
        <request index="19" response="10100000001010010000010000" foes="10100000001111010000011010" cont="0"/>
        <request index="20" response="10100000001010010000010000" foes="10100000001111010000011010" cont="0"/>
        <request index="21" response="10010000001000001101010000" foes="10010000001100001101011010" cont="1"/>
        <request index="22" response="00000000000000000000000000" foes="00001000000101000010111111" cont="0"/>
        <request index="23" response="00000000000000000000000000" foes="00000110100010111111110000" cont="0"/>
        <request index="24" response="00000000000000000000000000" foes="00000001011111110000001010" cont="0"/>
        <request index="25" response="00000000000000000000000000" foes="00001111111000001101000101" cont="0"/>
    </junction>
    <junction id="1" type="dead_end" x="-0.38" y="-200.00" incLanes="1i_0 1i_1 1i_2 1i_3 1i_4" intLanes="" shape="-0.38,-200.00 -12.77,-200.00 -3.37,-200.00" customShape="1"/>
    <junction id="2" type="dead_end" x="200.00" y="-7.00" incLanes="2i_0 2i_1 2i_2 2i_3 2i_4" intLanes="" shape="200.00,-7.00 200.01,21.00 200.00,-21.25"/>
    <junction id="3" type="dead_end" x="1.00" y="200.00" incLanes="3i_0 3i_1 3i_2 3i_3 3i_4" intLanes="" shape="1.00,200.00 -13.25,199.99 14.00,200.01"/>
    <junction id="4" type="dead_end" x="-200.00" y="-3.00" incLanes="4i_0 4i_1 4i_2 4i_3 4i_4 4i_5" intLanes="" shape="-200.00,-3.00 -200.00,-21.00 -200.01,21.25"/>
    <junction id="a1" type="priority" x="153.67" y="-167.95" incLanes="a4toa1_0 gneE7_0" intLanes=":a1_0_0 :a1_1_0" shape="150.56,-164.58 156.96,-164.76 156.94,-171.16 154.94,-170.97 153.32,-170.42 152.07,-169.51 151.19,-168.23 150.69,-166.59">
        <request index="0" response="00" foes="00" cont="0"/>
        <request index="1" response="00" foes="00" cont="0"/>
    </junction>
    <junction id="a2" type="priority" x="240.67" y="-168.17" incLanes="gneE6_0 a1toa2_0" intLanes=":a2_0_0 :a2_1_0" shape="237.55,-164.96 243.95,-165.13 243.17,-168.60 242.27,-169.81 241.03,-170.68 239.45,-171.19 237.54,-171.36">
        <request index="0" response="00" foes="00" cont="0"/>
        <request index="1" response="00" foes="00" cont="0"/>
    </junction>
    <junction id="a3" type="priority" x="241.95" y="-119.58" incLanes="a2toa3_0 gneE5_0" intLanes=":a3_0_0 :a3_1_0" shape="245.06,-122.88 238.67,-122.71 238.80,-116.31 242.35,-117.10 243.58,-118.02 244.44,-119.29 244.94,-120.91">
        <request index="0" response="00" foes="00" cont="0"/>
        <request index="1" response="00" foes="00" cont="0"/>
    </junction>